LAMMPS (7 Feb 2024 - Update 1)
# ----------------------------
# Li+ in Ethylene Carbonate
# NPT Equilibration + MSD Production
# ----------------------------

units real
atom_style full
boundary p p p

# --- Initial System ---
read_data ec_li.data
Reading data file ...
  orthogonal box = (-0.686 -1.6605 0.249) to (29.314 28.3395 30.249)
  reading atoms ...
  151 atoms
  scanning bonds ...
  scanning angles ...
  scanning dihedrals ...
  reading bonds ...
  150 bonds
  reading angles ...
  255 angles
  reading dihedrals ...
  285 dihedrals
Finding 1-2 1-3 1-4 neighbors ...
     4 = max # of 1-2 neighbors
     5 = max # of 1-3 neighbors
     9 = max # of 1-4 neighbors
     9 = max # of special neighbors
replicate 3 3 3   # 27 total Li+ ions, 15*27 EC molecules
Replication is creating a 3x3x3 = 27 times larger system...
  orthogonal box = (-0.686 -1.6605 0.249) to (89.314 88.3395 90.249)
  4077 atoms
  4050 bonds
  6885 angles
  7695 dihedrals
Finding 1-2 1-3 1-4 neighbors ...
     4 = max # of 1-2 neighbors
     5 = max # of 1-3 neighbors
     9 = max # of 1-4 neighbors
     9 = max # of special neighbors
  replicate CPU = 0.004 seconds

# --- Force Field Parameters ---
#pair_style lj/cut/coul/long 10.0
pair_style lj/cut 10.0
pair_modify mix arithmetic
#kspace_style pppm 1e-4

# Atom types:
# 1 = C, 2 = H, 3 = Li+, 4 = O
pair_coeff 1 1 0.1094 3.3997      # C (GAFF)
pair_coeff 2 2 0.0157 2.47135     # H (GAFF)
pair_coeff 3 3 0.0183 1.364       # Li+ (JC TIP3P)
pair_coeff 4 4 0.1700 3.0000      # O (GAFF/TIP3P compatible)

# Cross terms handled via mixing rule

# --- Bonding Parameters ---
bond_style harmonic
angle_style harmonic
dihedral_style opls

bond_coeff 1 300.0 1.0   # Placeholder; will be ignored if no angles/dihedrals
angle_coeff 1  70.0 109.5
angle_coeff 2  70.0 109.5
angle_coeff 3  70.0 109.5
angle_coeff 4  70.0 109.5
angle_coeff 5  70.0 109.5
angle_coeff 6  70.0 109.5

dihedral_coeff 1  0.0  1.0  0.0  0.0
dihedral_coeff 2  0.0  1.0  0.0  0.0
dihedral_coeff 3  0.0  1.0  0.0  0.0
dihedral_coeff 4  0.0  1.0  0.0  0.0
dihedral_coeff 5  0.0  1.0  0.0  0.0
dihedral_coeff 6  0.0  1.0  0.0  0.0

# --- Group Definitions ---
group li type 3
27 atoms in group li
group ec type 1 2 4
4050 atoms in group ec
group all_atoms union li ec
4077 atoms in group all_atoms

# --- Neighbor List ---
neighbor 2.0 bin
neigh_modify every 1 delay 0 check yes

# --- Initial Velocities ---
velocity all_atoms create 300.0 4928459 dist gaussian

# --- Thermo Settings ---
thermo_style custom step temp pe etotal press
thermo 1000

# ----------------------------
# Equilibration Phase
# ----------------------------

reset_timestep 0
fix equil all_atoms nvt temp 300.0 300.0 100.0
run 10000
Generated 6 of 6 mixed pair_coeff terms from arithmetic mixing rule
Step          Temp          PotEng         TotEng         Press
0   300            122329.46      125974.4      -27039.311
Averages over the last 6 of 11 rows, steps 5000 to 10000:
Temp PotEng TotEng Press
298.501 5720.98 9347.7 -13.1685
Loop time of 21.0493 on 1 procs for 10000 steps with 4077 atoms

unfix equil

# ----------------------------
# MSD Computation for Li+
# ----------------------------

compute msdLi li msd
fix msdOut all_atoms ave/time 100 10 1000 c_msdLi file msd_li.txt mode vector

# ----------------------------
# Production Phase: NPT
# ----------------------------

fix prod all_atoms npt temp 300.0 300.0 100.0 iso 1.0 1.0 1000.0

# Dump trajectory for post-analysis
dump traj all_atoms custom 1000 traj.lammpstrj id type q x y z
dump_modify traj sort id

run 100000
Generated 6 of 6 mixed pair_coeff terms from arithmetic mixing rule
Step          Temp          PotEng         TotEng         Press
10000   302.81626      5535.7797      9214.9311      51.525956
Averages over the last 51 of 101 rows, steps 60000 to 110000:
Temp PotEng TotEng Press
299.574 1521.32 5161.08 73.1891
Loop time of 979.827 on 1 procs for 100000 steps with 4077 atoms

# ----------------------------
# Cleanup & Save
# ----------------------------

unfix prod
unfix msdOut
undump traj
write_data final.data
System init for write_data ...
Generated 6 of 6 mixed pair_coeff terms from arithmetic mixing rule
